Version 4
SHEET 1 880 680
WIRE 288 48 176 48
WIRE 176 96 176 48
WIRE 176 208 176 160
FLAG 176 208 0
SYMBOL cap 160 96 R0
SYMATTR InstName C1
SYMBOL nmos 336 -48 R0
SYMATTR InstName M1
